%nprocshared=4
%mem=512Mb
%chk=chembl3218471.chk 
# opt freq=noraman m062x/6-311G(d,p) scf=maxcycle=1000 maxdisk=100Gb 

chembl3218471 


0  1
N           1.92008         0.80756        -0.02186
C           3.02345         1.07834         0.04401
C           4.45242         1.42443         0.08921
N           5.11818         1.15829        -1.18892
C           5.63547        -0.03520        -1.54940
O           5.61025        -0.97148        -0.77269
C           6.21808        -0.13854        -2.97053
N           5.16155         0.03291        -4.00126
C           4.41086         1.13553        -4.25917
O           4.63287         2.22613        -3.77437
C           3.31647         0.95156        -5.29147
C           2.28613        -0.11886        -4.86344
C           1.09677        -0.21714        -5.85014
C           0.08268        -1.29784        -5.43647
C          -0.67395        -1.66441        -6.72764
C           0.19004        -1.15510        -7.89965
C           1.49763        -0.64458        -7.27278
C           6.82772        -1.56889        -3.13072
C           7.59214        -1.77588        -4.45916
C           8.70205        -0.72046        -4.62886
C           8.12426         0.70205        -4.50096
C           7.38968         0.87609        -3.15103
H           4.93258         0.84693         0.88401
H           4.54706         2.48785         0.32059
H           5.09093         1.89246        -1.88206
H           4.90361        -0.81244        -4.48409
H           3.77093         0.67717        -6.24604
H           2.80340         1.90630        -5.43629
H           1.90253         0.13398        -3.87138
H           2.77785        -1.09143        -4.78323
H           0.57986         0.74572        -5.90165
H          -0.59334        -0.94464        -4.65390
H           0.60781        -2.18280        -5.06677
H          -1.65245        -1.17806        -6.74767
H          -0.82542        -2.74492        -6.78967
H          -0.32465        -0.33099        -8.40055
H           0.38040        -1.94057        -8.63491
H           1.92495         0.17972        -7.84874
H           2.22507        -1.45993        -7.23108
H           6.03721        -2.31976        -3.05728
H           7.52533        -1.76162        -2.31047
H           6.89991        -1.72841        -5.30339
H           8.04003        -2.77227        -4.46313
H           9.17949        -0.84131        -5.60409
H           9.47252        -0.87185        -3.86774
H           7.44035         0.89955        -5.33027
H           8.93524         1.43054        -4.57099
H           7.03047         1.90332        -3.07592
H           8.10814         0.74377        -2.33788

