%nprocshared=4
%mem=512Mb
%chk=chembl1836507.chk 
# opt freq=noraman m062x/6-311G(d,p) scf=maxcycle=1000 maxdisk=100Gb 

chembl1836507 


0  1
N           0.29244         0.52879        -3.37268
C          -0.52230         1.26652        -3.68559
C          -1.54948         2.20546        -4.06598
C          -1.35465         2.97414        -5.21500
C          -2.31706         3.89689        -5.61689
C          -3.47615         4.06118        -4.86449
C          -3.68034         3.28980        -3.72297
C          -2.72828         2.35029        -3.31613
C          -3.01996         1.48846        -2.09037
S          -2.26676         2.19128        -0.58747
C          -3.14852         3.71126        -0.40180
N          -2.43174         4.85850        -0.38670
C          -3.12138         6.02378        -0.34603
S          -2.20040         7.54228        -0.32590
C          -0.47279         6.94871        -0.29952
C           0.52154         8.09060        -0.27863
C           0.97343         8.60269         0.93776
C           1.94850         9.59969         0.95810
C           2.47211        10.08616        -0.23750
C           2.01537         9.58259        -1.45440
C           1.04081         8.58725        -1.47515
N          -4.47652         6.07761        -0.33639
C          -5.11597         5.16004        -0.35306
O          -6.31742         5.32185        -0.36972
N          -4.56976         3.91704        -0.37629
H          -0.45013         2.85272        -5.80804
H          -2.16374         4.48702        -6.51757
H          -4.22755         4.78412        -5.17360
H          -4.59698         3.42052        -3.15343
H          -2.63424         0.47539        -2.22762
H          -4.09778         1.41326        -1.92711
H          -0.30797         6.32812        -1.18454
H          -0.33819         6.32129         0.58560
H           0.58009         8.21493         1.87466
H           2.30848         9.98661         1.90822
H           3.24112        10.85368        -0.22123
H           2.42691         9.95937        -2.38767
H           0.69909         8.18763        -2.42692
H          -5.16745         3.10527        -0.38740

