%nprocshared=4
%mem=512Mb
%chk=chembl1836508.chk 
# opt freq=noraman m062x/6-311G(d,p) scf=maxcycle=1000 maxdisk=100Gb 

chembl1836508 


0  1
N           4.84109         5.98640        -5.37995
C           4.64112         4.95275        -4.93613
C           4.37911         3.64674        -4.38859
C           4.70348         2.50331        -5.11841
C           4.44139         1.24226        -4.58748
C           3.84812         1.12189        -3.33285
C           3.51299         2.26243        -2.60103
C           2.83712         2.12712        -1.24746
S           4.07484         1.94333         0.07761
C           4.88110         3.51724         0.11634
N           6.23634         3.55053         0.11249
C           6.81282         4.77643         0.12874
S           8.58060         4.88355         0.13655
C           9.14710         3.46104        -0.86585
C           8.69374         3.51564        -2.32235
C           8.39318         4.71887        -2.97253
C           8.02985         4.72108        -4.31768
C           7.97135         3.52603        -5.02939
C           8.26839         2.32496        -4.39129
C           8.62652         2.32138        -3.04447
N           6.10204         5.93085         0.15411
C           4.98631         5.95766         0.16233
O           4.45404         7.04705         0.19372
N           4.25771         4.81324         0.14950
C           3.78526         3.52553        -3.13262
H           5.16059         2.59079        -6.10150
H           4.69410         0.35028        -5.15732
H           3.64052         0.13327        -2.92889
H           2.19136         1.24508        -1.23796
H           2.21978         3.00334        -1.03327
H           8.77377         2.54772        -0.39454
H          10.23874         3.43398        -0.82722
H           8.44734         5.66906        -2.44879
H           7.79679         5.65997        -4.81422
H           7.69532         3.53206        -6.08102
H           8.22919         1.39078        -4.94615
H           8.86928         1.37839        -2.56006
H           3.25181         4.85838         0.18022
H           3.52710         4.41920        -2.56926

