%nprocshared=4
%mem=512Mb
%chk=chembl1208976.chk 
# opt freq=noraman m062x/6-311G(d,p) scf=maxcycle=1000 maxdisk=100Gb 

chembl1208976 


0  1
C           7.40483        -0.91977         1.96476
N           6.30230        -0.56485         1.07621
C           6.05289         0.64572         0.43834
N           5.26161         0.71275        -0.36649
C           4.81629        -0.55992        -0.43975
C           3.85092        -1.13676        -1.26033
C           3.12246        -0.36326        -2.23288
N           2.53234         0.24049        -3.00362
N           3.55200        -2.45797        -1.16807
C           4.17555        -3.26450        -0.25449
C           3.80042        -4.62669        -0.17114
C           2.90897        -5.16069        -1.11298
C           2.48532        -6.48139        -1.04037
C           2.92674        -7.31769        -0.01287
O           2.44438        -8.61377         0.10278
C           1.49400        -9.21335        -0.81478
C           1.01525       -10.56371        -0.30334
C           1.06276       -10.90581         1.05056
C           0.55647       -12.13954         1.45272
C           0.01316       -12.99360         0.49387
N          -0.04202       -12.67877        -0.81968
C           0.45615       -11.47963        -1.19835
C           3.83554        -6.82118         0.93450
C           4.33348        -7.69597         2.09479
F           4.75449        -8.91175         1.70064
F           5.38013        -7.16398         2.75566
F           3.37565        -7.88738         3.02011
C           4.25815        -5.48665         0.84229
C           5.16444        -2.71573         0.59100
C           5.44574        -1.36341         0.44807
H           7.93796        -0.01527         2.27005
H           8.09568        -1.58554         1.44013
H           7.01369        -1.42546         2.85144
H           6.63621         1.53438         0.63006
H           2.52212        -4.55809        -1.93100
H           1.79172        -6.83690        -1.79577
H           1.97827        -9.32466        -1.78948
H           0.63257        -8.54770        -0.91626
H           1.47921       -10.22349         1.78768
H           0.57864       -12.42952         2.50014
H          -0.39940       -13.96214         0.76996
H           0.38333       -11.25587        -2.26093
H           4.92446        -5.12002         1.61158
H           5.71909        -3.29023         1.32332

