%nprocshared=4
%mem=512Mb
%chk=chembl4099269.chk 
# opt freq=noraman m062x/6-311G(d,p) scf=maxcycle=1000 maxdisk=100Gb 

chembl4099269 


0  1
C           9.37480         2.37122        -1.82297
C           7.89959         2.19562        -1.40058
C           7.74320         0.87262        -0.61819
C           7.39838         3.37856        -0.52785
C           7.31575         4.75149        -1.25652
N           6.86433         5.78744        -0.31824
C           7.63858         6.36050         0.62157
O           8.82763         6.13951         0.75016
O           6.83964         6.98365         1.51271
C           7.35909         7.35425         2.81847
C           7.70368         8.83476         2.92896
C           7.79336         9.39637         4.20560
C           8.10798        10.74465         4.36684
C           8.33157        11.54450         3.25110
C           8.23995        10.99424         1.97475
C           7.93215         9.64313         1.81165
C           6.35116         4.70695        -2.43794
O           5.32105         4.06840        -2.37201
N           6.46097         5.60139        -3.45295
C           7.59447         6.44703        -3.87315
C           8.82886         5.64677        -4.24215
C           9.23425         5.47639        -5.50981
C          10.44882         4.79105        -5.83151
N          11.44299         4.28395        -6.07724
C           7.92441         7.61969        -2.91910
C           8.87007         8.63912        -3.59715
C           9.32531         9.76732        -2.68237
C           9.94591         9.48889        -1.46080
C          10.41525        10.52543        -0.65733
C          10.27583        11.84786        -1.07155
C           9.66347        12.13272        -2.28960
C           9.18996        11.09635        -3.09201
H           9.71916         1.49653        -2.37998
H          10.01945         2.49601        -0.94957
H           9.49619         3.23934        -2.46934
H           7.28604         2.12148        -2.30145
H           8.33863         0.88838         0.29816
H           8.06972         0.02452        -1.22474
H           6.69816         0.70729        -0.34539
H           8.05605         3.47353         0.33997
H           6.40763         3.13414        -0.13483
H           8.30646         5.01718        -1.62098
H           5.87377         5.97439        -0.29632
H           8.22608         6.73549         3.06628
H           6.57284         7.12114         3.54107
H           7.61711         8.78033         5.08424
H           8.17653        11.17017         5.36538
H           8.57595        12.59668         3.37568
H           8.40809        11.62228         1.10421
H           7.86965         9.23065         0.80801
H           5.69525         5.58974        -4.10997
H           7.23915         6.91891        -4.79387
H           9.43402         5.26993        -3.42362
H           8.67219         5.88319        -6.34957
H           8.39830         7.23632        -2.01761
H           7.00247         8.12499        -2.62005
H           8.36576         9.05386        -4.47368
H           9.76375         8.12932        -3.96328
H          10.07912         8.46192        -1.12992
H          10.89307        10.30058         0.29313
H          10.64719        12.65590        -0.44626
H           9.56263        13.16394        -2.61898
H           8.72803        11.33132        -4.04816

