%nprocshared=4
%mem=512Mb
%chk=chembl1208846.chk 
# opt freq=noraman m062x/6-311G(d,p) scf=maxcycle=1000 maxdisk=100Gb 

chembl1208846 


0  1
C           1.05622         0.09333        -0.98279
C           2.58437         0.03969        -1.14250
N           3.21113         1.11080        -0.36235
C           4.54080         1.45824        -0.45328
C           5.44928         0.57157        -1.04167
C           6.80065         0.88232        -1.13790
C           7.29261         2.11396        -0.69104
C           8.66783         2.41128        -0.80572
C           9.13716         3.73315        -0.65584
C          10.50460         3.93663        -0.77733
N          11.23867         5.04132        -0.71439
C          12.50997         4.51641        -0.91462
N          12.65654         3.40531        -1.06656
C          11.39045         2.94097        -1.00329
C          10.88850         1.64733        -1.13772
C          11.75812         0.51623        -1.33478
N          12.44474        -0.38767        -1.47229
N           9.55439         1.40103        -1.05952
C           6.37791         2.99851        -0.10235
C           5.02226         2.68276         0.05553
C           4.17403         3.73078         0.79968
F           2.90520         3.38961         1.08740
F           4.72836         4.04830         1.98482
F           4.09998         4.87899         0.10328
H           0.58871        -0.71181        -1.55389
H           0.66377         1.04601        -1.34641
H           0.77487        -0.02169         0.06679
H           2.83920         0.15317        -2.20017
H           2.94591        -0.93072        -0.79101
H           2.57649         1.78796         0.04818
H           5.12136        -0.38911        -1.42973
H           7.45691         0.15229        -1.60555
H           8.48695         4.58689        -0.49955
H          10.94719         6.00476        -0.61838
H          13.39015         5.14015        -0.96655
H           6.71478         3.94345         0.30988

