%nprocshared=4
%mem=512Mb
%chk=chembl1209854.chk 
# opt freq=noraman m062x/6-311G(d,p) scf=maxcycle=1000 maxdisk=100Gb 

chembl1209854 


0  1
N           1.20955        -0.10063         0.54365
C           2.34300        -0.05352         0.40293
C           3.77002        -0.00558         0.21155
N           4.44358        -1.18527         0.23300
C           5.79851        -1.23045         0.04132
C           6.46242        -2.47967         0.07360
C           7.82259        -2.62525        -0.24981
C           8.44342        -3.87060        -0.20031
C           7.72870        -4.99990         0.18040
C           6.37588        -4.89218         0.50441
C           5.56530        -6.10717         0.94962
F           6.23018        -7.27162         0.83483
F           5.19656        -6.00519         2.23881
F           4.43585        -6.24625         0.23290
C           5.75724        -3.64073         0.44036
C           6.50806        -0.02925        -0.17335
C           5.77764         1.14989        -0.17382
N           6.15076         2.41470        -0.32262
C           4.92580         3.06071        -0.20186
N           3.97792         2.46830        -0.02925
C           4.43892         1.19958         0.01053
H           8.43283        -1.78903        -0.56895
H           9.49538        -3.96057        -0.46079
H           8.23619        -5.96056         0.22227
H           4.70466        -3.58945         0.70857
H           7.58152         0.02335        -0.30847
H           7.07534         2.80506        -0.44706
H           4.83356         4.13615        -0.24301

