%nprocshared=4
%mem=512Mb
%chk=chembl4090306.chk 
# opt freq=noraman m062x/6-311G(d,p) scf=maxcycle=1000 maxdisk=100Gb 

chembl4090306 


0  1
C           9.04372         2.31210        -1.47941
C           7.66911         2.46067        -0.78643
C           7.38733         1.20127         0.06334
C           7.59751         3.71804         0.12255
C           7.89118         5.06626        -0.58942
N           8.02019         6.15109         0.39557
C           9.10463         6.34989         1.17001
O          10.12404         5.69146         1.08484
O           8.76189         7.14820         2.20433
C           9.59511         7.18908         3.39185
C          10.46989         8.43380         3.40903
C          10.04121         9.57374         4.08699
C          10.87289        10.68570         4.19627
C          12.15459        10.68322         3.62777
N          13.00082        11.76773         3.77046
O          12.60464        12.80151         4.43152
O          14.18485        11.70563         3.26558
C          12.56462         9.54092         2.92517
C          11.73185         8.42740         2.81765
C           6.79983         5.39951        -1.59458
O           5.76396         5.94622        -1.26728
N           7.08779         5.12164        -2.88783
C           6.25589         5.52910        -4.03050
C           6.22613         4.44339        -5.09165
C           5.12023         3.72790        -5.34969
C           5.00850         2.72386        -6.48540
N           4.91581         1.89093        -7.42756
C           6.75155         6.87516        -4.60911
C           5.85597         7.39730        -5.75443
C           6.36896         8.71441        -6.31502
C           7.33978         8.71801        -7.31949
C           7.81442         9.92314        -7.83436
C           7.32126        11.13182        -7.34764
C           6.35371        11.13395        -6.34483
C           5.87928         9.92897        -5.82933
H           9.09832         1.36491        -2.02134
H           9.85432         2.33350        -0.74675
H           9.20973         3.11046        -2.20476
H           6.89639         2.52775        -1.55631
H           8.12831         1.09714         0.86079
H           7.42325         0.30046        -0.55382
H           6.39746         1.25743         0.52177
H           8.31018         3.58887         0.94075
H           6.60560         3.77153         0.58034
H           8.83727         5.00495        -1.13235
H           7.18485         6.68128         0.59307
H          10.19945         6.28001         3.46295
H           8.92428         7.20149         4.25506
H           9.05934         9.59373         4.55542
H          10.51153        11.55003         4.74928
H          13.55103         9.50106         2.46768
H          12.08201         7.54513         2.28698
H           7.96597         4.67286        -3.09913
H           5.23472         5.68332        -3.66857
H           7.12762         4.30970        -5.68577
H           4.20958         3.88251        -4.77219
H           7.77747         6.76397        -4.96974
H           6.76885         7.62165        -3.81045
H           4.83367         7.52423        -5.38946
H           5.81383         6.66275        -6.56224
H           7.73109         7.77928        -7.70454
H           8.56972         9.91999        -8.61648
H           7.69098        12.07188        -7.74966
H           5.96860        12.07721        -5.96445
H           5.12527         9.94066        -5.04596

