%nprocshared=4
%mem=512Mb
%chk=chembl3264276.chk 
# opt freq=noraman m062x/6-311G(d,p) scf=maxcycle=1000 maxdisk=100Gb 

chembl3264276 


0  1
C          -1.80667        -1.79522        -4.78572
C          -1.07305        -1.61894        -3.43982
C          -2.02979        -1.90009        -2.25979
C           0.18211        -2.48424        -3.36429
C           1.44169        -1.88984        -3.28598
C           2.58305        -2.67813        -3.17750
C           2.48048        -4.06610        -3.12776
C           1.22010        -4.68667        -3.19963
C           1.07315        -6.17476        -3.04381
C           1.94503        -6.89234        -2.20394
C           1.74132        -8.24991        -1.96826
C           0.67028        -8.91967        -2.55768
C           0.40712       -10.38506        -2.26234
O           0.61352       -10.64359        -0.84501
C          -0.33080       -11.29425        -0.12745
O          -1.42652       -11.60731        -0.55128
N           0.11618       -11.65951         1.10368
C           1.51763       -11.60495         1.54525
C           1.73159       -12.90438         2.32722
C           0.37448       -13.14624         2.99804
C          -0.66036       -12.49216         2.04670
C          -1.76800       -11.73835         2.78846
O          -1.82832       -11.65222         3.99976
N          -2.69615       -11.14539         2.00812
C          -3.86231       -10.40179         2.50060
C          -4.98168       -10.57642         1.56048
N          -5.82270       -10.71800         0.80746
C          -3.53149        -8.90454         2.71010
C          -4.67539        -8.12751         3.34134
N          -4.74960        -6.82521         3.01166
O          -5.46446        -8.61129         4.12709
C          -0.17705        -8.22467        -3.42107
C           0.01700        -6.86725        -3.66502
C           0.07819        -3.87706        -3.33672
H          -2.66681        -1.12410        -4.84373
H          -2.16314        -2.82048        -4.90919
H          -1.13714        -1.56167        -5.61674
H          -0.77659        -0.56938        -3.36803
H          -2.41440        -2.92205        -2.29432
H          -2.88161        -1.21701        -2.28367
H          -1.51016        -1.76281        -1.30854
H           1.54012        -0.80692        -3.29893
H           3.56077        -2.20686        -3.11368
H           3.38977        -4.65351        -3.03001
H           2.76384        -6.39598        -1.68983
H           2.41111        -8.78120        -1.29622
H           1.09100       -11.02052        -2.83074
H          -0.61524       -10.64087        -2.55328
H           1.64783       -10.74080         2.20382
H           2.21802       -11.54285         0.70848
H           2.54607       -12.82654         3.05076
H           1.95056       -13.71744         1.62999
H           0.38857       -12.66869         3.97978
H           0.17601       -14.21179         3.13371
H          -1.15130       -13.27968         1.46751
H          -2.60693       -11.23380         1.00652
H          -4.16944       -10.83020         3.45938
H          -3.26394        -8.45484         1.74934
H          -2.65745        -8.80992         3.35851
H          -4.07837        -6.41895         2.37809
H          -5.47723        -6.25097         3.40995
H          -1.00865        -8.73774        -3.89863
H          -0.66924        -6.35747        -4.33681
H          -0.90908        -4.32821        -3.37774

