%nprocshared=4
%mem=512Mb
%chk=chembl3605408.chk 
# opt freq=noraman m062x/6-311G(d,p) scf=maxcycle=1000 maxdisk=100Gb 

chembl3605408 


0  1
C           0.97682         2.70920        -3.75348
C           2.50243         2.57560        -3.91427
C           3.09445         1.22373        -3.40849
C           2.42545        -0.03803        -4.01260
C           2.70181        -0.23101        -5.51877
C           4.59961         1.21093        -3.67238
O           5.06691         1.66771        -4.69432
N           5.35978         0.61906        -2.72494
C           6.79395         0.60655        -2.67639
C           7.53398         1.68608        -3.17047
C           8.92006         1.68858        -3.10086
C           9.60125         0.60071        -2.55026
C          11.09449         0.57149        -2.48926
O          11.69431        -0.46553        -2.28425
N          11.71444         1.77332        -2.63668
C          13.16872         2.05212        -2.60440
C          13.36339         3.58790        -2.64112
O          13.95495         4.20462        -1.77542
N          12.76404         4.26776        -3.65263
C          12.81920         5.73709        -3.82602
C          11.63909         6.41666        -3.15080
N          10.66009         6.98041        -2.59065
C          13.82335         1.41688        -3.86523
C          15.36308         1.48174        -3.84153
C          15.90760         0.78755        -2.58134
C          15.36610         1.46038        -1.30785
C          13.81937         1.46931        -1.29636
C           8.86824        -0.48216        -2.05252
C           7.46935        -0.46323        -2.09209
F           6.77840        -1.48545        -1.55639
H           0.67298         3.73753        -3.96876
H           0.66143         2.46510        -2.73655
H           0.45221         2.05690        -4.45536
H           2.97799         3.38339        -3.35396
H           2.75213         2.73308        -4.96418
H           2.93132         1.18626        -2.32645
H           1.34962        -0.00929        -3.84784
H           2.79287        -0.91890        -3.48525
H           2.45320         0.66876        -6.09345
H           2.10542        -1.05801        -5.91191
H           3.75548        -0.47064        -5.69832
H           4.90279         0.10137        -1.99179
H           7.04511         2.55044        -3.61292
H           9.46114         2.52409        -3.53432
H          11.12679         2.59249        -2.69555
H          12.23853         3.74440        -4.33631
H          12.79403         5.96977        -4.89340
H          13.74716         6.13017        -3.40140
H          13.45630         1.90561        -4.76994
H          13.53207         0.36888        -3.94524
H          15.69816         2.52327        -3.86952
H          15.75800         0.98617        -4.73147
H          17.00114         0.82882        -2.58076
H          15.62522        -0.27076        -2.59106
H          15.75753         2.47678        -1.23200
H          15.72384         0.91509        -0.43105
H          13.46137         2.01670        -0.42209
H          13.52592         0.43406        -1.13568
H           9.37259        -1.32998        -1.59652

