%nprocshared=4
%mem=512Mb
%chk=chembl4060936.chk 
# opt freq=noraman m062x/6-311G(d,p) scf=maxcycle=1000 maxdisk=100Gb 

chembl4060936 


0  1
N           7.80005         9.84745         6.98717
C           7.49431         8.67573         6.63553
C           7.12577         7.26332         6.21165
C           8.08769         6.40591         5.83396
C           7.82076         4.98592         5.38974
C           8.45025         3.95523         6.35488
C           7.86927         4.05974         7.78036
C           8.47237         3.02597         8.71613
C           9.62928         3.32441         9.43932
C          10.17423         2.38413        10.31178
C           9.56695         1.13939        10.46335
C           8.41835         0.83297         9.73641
C           7.87300         1.77322         8.86387
N           8.32926         4.79531         4.02477
C           7.72271         4.02368         3.09475
O           6.66488         3.47570         3.34059
C           8.42313         3.87150         1.74450
C           8.12499         2.46717         1.15712
C           8.55092         2.27100        -0.29165
C           9.46820         1.27309        -0.62662
C           9.77814         1.02133        -1.96232
C           9.17375         1.76772        -2.97142
C           8.26270         2.76912        -2.64389
C           7.94954         3.01855        -1.30839
N           9.87595         4.13457         1.79568
C          10.44038         5.33733         1.55888
O           9.80669         6.34325         1.30834
O          11.78120         5.19395         1.46369
C          12.57181         6.22456         0.80541
C          13.49741         6.94689         1.77466
C          14.46994         6.24111         2.48770
C          15.39196         6.92160         3.28331
C          15.34885         8.31188         3.37007
C          14.37437         9.01974         2.66998
C          13.45251         8.33979         1.87584
H           6.07036         6.99440         6.21989
H           9.13012         6.71499         5.83911
H           6.73824         4.82418         5.38197
H           8.26313         2.94862         5.97191
H           9.53421         4.09268         6.38792
H           6.78461         3.93086         7.74162
H           8.05489         5.05737         8.18608
H          10.10905         4.29405         9.32719
H          11.07212         2.62342        10.87629
H           9.98928         0.40774        11.14780
H           7.94553        -0.13925         9.85182
H           6.97594         1.52650         8.30057
H           9.21461         5.22289         3.79373
H           7.96275         4.62121         1.09513
H           8.58944         1.70848         1.79239
H           7.04907         2.27940         1.19290
H           9.92847         0.66762         0.15092
H          10.48019         0.23141        -2.21727
H           9.40556         1.56206        -4.01373
H           7.78277         3.34531        -3.43125
H           7.21607         3.78350        -1.06580
H          10.48351         3.34179         1.92451
H          11.91794         6.93370         0.29021
H          13.17629         5.72768         0.04218
H          14.52440         5.15841         2.40617
H          16.15629         6.36892         3.82429
H          16.07780         8.84330         3.97700
H          14.34459        10.10539         2.73058
H          12.71139         8.90471         1.31509

