%nprocshared=4
%mem=512Mb
%chk=chembl3218465.chk 
# opt freq=noraman m062x/6-311G(d,p) scf=maxcycle=1000 maxdisk=100Gb 

chembl3218465 


0  1
N           7.59860        -2.22256        -1.10035
C           6.66775        -1.86529        -0.32840
C           5.54568        -1.43463         0.60214
N           5.90712        -0.31630         1.46904
C           5.76955         0.98568         1.14384
O           5.36148         1.30614         0.04326
C           6.14752         2.00488         2.23063
N           7.58289         1.88535         2.59705
C           8.22291         0.83457         3.16922
O           7.64794        -0.09806         3.69363
C           9.71958         1.00448         3.32277
C          10.03418         2.05949         4.39789
C          11.51380         2.14836         4.71834
C          12.05036         1.45674         5.80653
C          13.40820         1.59293         6.08647
C          14.18795         2.41040         5.26738
N          13.68444         3.07822         4.20638
C          12.36523         2.93950         3.94565
C           5.20241         1.81753         3.45903
C           5.40360         2.90431         4.53993
C           5.16193         4.30988         3.95612
C           6.06853         4.55538         2.73413
C           5.88955         3.44242         1.67591
H           5.27672        -2.28669         1.23110
H           4.67580        -1.16310        -0.00221
H           6.27257        -0.54301         2.38268
H           8.16055         2.64697         2.27400
H          10.16260         1.29394         2.36739
H          10.15908         0.04498         3.60833
H           9.47794         1.81856         5.30938
H           9.67660         3.03808         4.06330
H          11.42179         0.82816         6.43182
H          13.85123         1.07307         6.93184
H          15.25056         2.54763         5.45977
H          11.99523         3.49666         3.08668
H           5.34182         0.83732         3.91732
H           4.16328         1.84743         3.12031
H           6.41321         2.84232         4.95331
H           4.70623         2.73094         5.36393
H           5.35825         5.06639         4.71915
H           4.11336         4.40829         3.66171
H           7.11316         4.60974         3.05086
H           5.81456         5.51942         2.28733
H           6.55710         3.63976         0.83352
H           4.86755         3.50642         1.29087

