%nprocshared=4
%mem=512Mb
%chk=chembl1209856.chk 
# opt freq=noraman m062x/6-311G(d,p) scf=maxcycle=1000 maxdisk=100Gb 

chembl1209856 


0  1
C           1.01523         0.37699         0.67446
C           2.52472         0.61771         0.83114
O           3.16457        -0.66025         1.05744
C           4.51739        -0.83121         1.31190
C           5.40378         0.23709         1.15048
C           6.76263         0.08165         1.40336
C           7.27431        -1.13392         1.87650
C           8.65375        -1.26601         2.14434
C           9.13678        -2.33978         2.92103
C          10.50514        -2.39773         3.13828
N          11.24986        -3.24792         3.83277
C          12.51603        -2.71594         3.61670
N          12.65091        -1.79256         2.97751
C          11.37973        -1.50218         2.62605
C          10.86398        -0.46107         1.85699
C          11.72125         0.51252         1.23084
N          12.39824         1.27675         0.71668
N           9.52708        -0.34047         1.64432
C           6.37616        -2.19918         2.03119
C           5.01468        -2.07936         1.72593
C           4.16928        -3.35583         1.85678
F           2.88782        -3.27469         1.45641
F           4.70283        -4.36110         1.13588
F           4.13676        -3.79100         3.12959
H           0.49688         1.32116         0.49546
H           0.60537        -0.07756         1.57925
H           0.82060        -0.29081        -0.16793
H           2.70961         1.27330         1.68690
H           2.92475         1.07017        -0.08058
H           5.05272         1.20961         0.81877
H           7.40794         0.94518         1.26333
H           8.49393        -3.07993         3.38659
H          10.96930        -4.02552         4.41520
H          13.40268        -3.13408         4.07025
H           6.72837        -3.17840         2.33624

