%nprocshared=4
%mem=512Mb
%chk=chembl1209772.chk 
# opt freq=noraman m062x/6-311G(d,p) scf=maxcycle=1000 maxdisk=100Gb 

chembl1209772 


0  1
C           0.79336         0.01787        -0.76070
C           2.30327        -0.14740        -0.98918
O           2.95664         1.09768        -0.64656
C           4.30874         1.34487        -0.82370
C           5.17419         0.29969        -1.16213
C           6.53012         0.53018        -1.36154
C           7.06274         1.82294        -1.28180
C           8.43847         2.03434        -1.51457
C           8.94308         3.32368        -1.76957
C          10.30535         3.51360        -1.99405
C          11.16073         2.42024        -1.93296
C          10.61401         1.16696        -1.67570
C          11.45874         0.00928        -1.55281
N          12.13483        -0.90537        -1.43344
N           9.28927         0.97460        -1.49179
C           6.18978         2.86349        -0.93213
C           4.83136         2.64222        -0.67115
C           4.01764         3.86024        -0.20497
F           2.72864         3.64002         0.10786
F           4.56461         4.40981         0.89571
F           4.01269         4.82997        -1.13862
H           0.27195        -0.91328        -0.99258
H           0.39441         0.80686        -1.40225
H           0.59015         0.27935         0.28015
H           2.49443        -0.38094        -2.04057
H           2.68992        -0.94802        -0.35245
H           4.80774        -0.71645        -1.27219
H           7.15580        -0.31927        -1.62513
H           8.29514         4.19009        -1.84941
H          10.69447         4.50457        -2.21382
H          12.23065         2.54447        -2.08383
H           6.56231         3.87233        -0.79154

