%nprocshared=4
%mem=512Mb
%chk=chembl1209086.chk 
# opt freq=noraman m062x/6-311G(d,p) scf=maxcycle=1000 maxdisk=100Gb 

chembl1209086 


0  1
C           1.94545        -0.73749        -1.93218
N           2.67986         0.17769        -2.83672
C           1.76308         1.14476        -3.47629
C           3.82259         0.87066        -2.18320
C           4.92644        -0.09237        -1.69076
C           5.46053        -0.95552        -2.84504
O           6.47458        -1.85172        -2.33387
C           7.17973        -2.74165        -3.12706
C           6.96442        -2.76193        -4.50814
C           7.69952        -3.59908        -5.33505
C           8.65841        -4.46900        -4.80636
C           9.39824        -5.33871        -5.63151
C           9.48609        -5.10539        -7.02038
C          10.19776        -6.02185        -7.77465
C          10.77849        -7.12432        -7.24979
N          11.37558        -7.87136        -8.20429
C          11.17817        -7.27589        -9.14588
N          10.45698        -6.08787        -9.07554
C          10.17383        -5.11214       -10.12423
C          10.67854        -7.31581        -5.87298
C          11.22414        -8.48048        -5.23027
N          11.63958        -9.41561        -4.71860
N          10.01826        -6.42692        -5.08317
C           8.83694        -4.47721        -3.41445
C           8.12549        -3.61960        -2.56565
C           8.46189        -3.68495        -1.06658
F           7.64699        -3.00612        -0.24058
F           8.44436        -4.95372        -0.61557
F           9.70344        -3.22348        -0.82958
H           1.10826        -1.19575        -2.46591
H           1.56004        -0.18846        -1.06853
H           2.60099        -1.53953        -1.58377
H           0.95208         0.61341        -3.98227
H           2.30500         1.73852        -4.21763
H           1.33618         1.81477        -2.72449
H           3.45999         1.46326        -1.33862
H           4.27653         1.55635        -2.90536
H           4.55189        -0.73115        -0.88821
H           5.74857         0.49288        -1.27244
H           5.89991        -0.30992        -3.61064
H           4.65037        -1.54835        -3.27913
H           6.21741        -2.12470        -4.97180
H           7.45805        -3.58607        -6.39221
H           9.06316        -4.23036        -7.50480
H          11.58345        -7.65339       -10.07245
H          10.55048        -5.47962       -11.08205
H          10.66333        -4.16441        -9.88378
H           9.09437        -4.95615       -10.19603
H           9.57987        -5.13327        -2.96746

