%nprocshared=4
%mem=512Mb
%chk=chembl3823624.chk 
# opt freq=noraman m062x/6-311G(d,p) scf=maxcycle=1000 maxdisk=100Gb 

chembl3823624 


0  1
N           8.75236         4.63950        -0.34735
C           8.11315         3.69623         0.19273
C           7.34262         2.55919         0.84375
C           6.00660         2.52047         0.98485
C           5.06570         3.62186         0.55392
C           4.76449         3.56156        -0.96307
C           3.93511         4.77097        -1.45314
C           4.71537         6.09876        -1.28705
N           4.00522         7.31377        -1.74475
C           2.85253         7.69794        -1.11192
O           2.40814         7.10255        -0.14835
C           2.09095         8.88276        -1.68497
N           2.03409         9.10217        -2.77386
C           2.55064         8.86837        -3.73402
C           1.96767         8.69087        -5.04856
C           0.71310         9.23455        -5.34876
C           0.18117         9.11858        -6.63222
C           0.90132         8.46808        -7.63102
C           2.14495         7.91405        -7.34017
C           2.66997         8.01379        -6.05317
C           3.99490         8.97054        -3.60948
C           4.67095         9.91198        -4.38926
C           6.05016        10.06679        -4.29554
C           6.78025         9.30369        -3.39527
C           6.12094         8.38250        -2.50810
C           4.69731         8.17628        -2.68234
H           7.95131         1.72545         1.19069
H           5.53952         1.65815         1.45449
H           5.51460         4.57557         0.83049
H           4.12957         3.54495         1.11207
H           4.21336         2.64298        -1.17659
H           5.69723         3.51400        -1.53021
H           2.99282         4.79495        -0.90264
H           3.68641         4.62902        -2.50775
H           5.64583         5.98225        -1.84846
H           4.97266         6.26146        -0.23921
H           2.60564         9.78711        -1.34682
H           1.08489         8.86902        -1.25485
H           0.14546         9.75928        -4.58378
H          -0.79297         9.54614        -6.85616
H           0.49366         8.39306        -8.63615
H           2.71119         7.40944        -8.11944
H           3.64469         7.57745        -5.84717
H           4.11522        10.53364        -5.08759
H           6.55605        10.79196        -4.92807
H           7.85774         9.42665        -3.32187
H           6.67057         7.93320        -1.68503

