%nprocshared=4
%mem=512Mb
%chk=chembl1208847.chk 
# opt freq=noraman m062x/6-311G(d,p) scf=maxcycle=1000 maxdisk=100Gb 

chembl1208847 


0  1
C           1.07033         0.17958         0.14379
C           2.55040         0.04627        -0.13251
O           2.98204        -0.75249        -0.93976
N           3.33969         0.81656         0.65238
C           4.77544         0.86738         0.71584
C           5.51566         0.70253        -0.45778
C           6.90465         0.74554        -0.44647
C           7.60359         1.02257         0.73235
C           9.01214         1.08590         0.76711
C           9.77227         0.46957        -0.24740
C          11.15202         0.53448        -0.13131
N          12.12023         0.01569        -0.87510
C          13.24043         0.45144        -0.17521
N          13.12768         1.08708         0.75303
C          11.78504         1.17987         0.87428
C          10.99873         1.80108         1.84339
C          11.58988         2.55718         2.91687
N          12.05855         3.17571         3.75734
N           9.64196         1.72653         1.79791
C           6.85453         1.24995         1.89546
C           5.45812         1.13921         1.91899
C           4.78550         1.32032         3.29087
F           3.46837         1.05319         3.34909
F           5.34692         0.52267         4.21803
F           4.92761         2.57950         3.74041
H           0.48998        -0.34637        -0.61787
H           0.77367         1.23105         0.14091
H           0.83227        -0.24442         1.12169
H           2.87371         1.35719         1.36612
H           5.01661         0.54534        -1.40979
H           7.41492         0.62302        -1.39624
H           9.33260        -0.09786        -1.06191
H          12.05973        -0.62008        -1.65900
H          14.24155         0.15035        -0.44686
H           7.36337         1.46732         2.83207

