%nprocshared=4
%mem=512Mb
%chk=chembl1209531.chk 
# opt freq=noraman m062x/6-311G(d,p) scf=maxcycle=1000 maxdisk=100Gb 

chembl1209531 


0  1
C           0.88252         0.22706         0.71353
C           2.39072         0.40726         0.94475
O           3.02965        -0.88002         0.77774
C           4.38419        -1.12118         0.95104
C           5.25069        -0.07259         1.27504
C           6.60804        -0.30151         1.47367
C           7.14478        -1.59076         1.36229
C           8.51976        -1.83116         1.56944
N           9.33682        -0.77594         1.86000
C          10.66004        -1.00014         2.04939
C          11.50039         0.13198         2.34349
N          12.15761         1.03923         2.57143
C          11.17581        -2.29080         1.95150
N          12.44606        -2.72306         2.09797
C          12.33842        -3.83038         1.92109
N          11.09052        -4.36840         1.64219
C          10.30435        -3.29673         1.66459
N           8.98523        -3.10879         1.46670
C           6.26669        -2.63459         1.03273
C           4.90114        -2.42240         0.81398
C           4.06504        -3.65872         0.44785
F           2.79068        -3.43616         0.08107
F           4.61667        -4.33073        -0.58063
F           4.01282        -4.52884         1.47337
H           0.36471         1.18183         0.82636
H           0.46778        -0.47936         1.43628
H           0.69247        -0.15392        -0.29247
H           2.56839         0.77277         1.96016
H           2.79805         1.11354         0.21567
H           4.88284         0.94373         1.38039
H           7.23450         0.55078         1.72457
H          13.22911        -4.43899         1.97121
H          10.83972        -5.33136         1.46346
H           6.63776        -3.65190         0.93543

