%nprocshared=4
%mem=512Mb
%chk=chembl1209085.chk 
# opt freq=noraman m062x/6-311G(d,p) scf=maxcycle=1000 maxdisk=100Gb 

chembl1209085 


0  1
C           7.56070        -0.84042         1.73744
N           6.27561        -0.49331         1.13785
C           5.89721         0.71515         0.56379
N           4.99007         0.78400        -0.10595
C           4.57998        -0.50261        -0.14277
C           3.53588        -1.09109        -0.84577
C           2.63328        -0.33042        -1.67057
N           1.90075         0.26239        -2.31841
N           3.32091        -2.42781        -0.78392
C           4.09104        -3.23082         0.01166
C           3.82695        -4.61307         0.03052
C           3.07750        -5.16685        -1.00683
C           2.81349        -6.52077        -1.05368
C           3.24498        -7.39012        -0.04423
O           2.98265        -8.75507        -0.17066
C           2.54305        -9.27597        -1.45117
C           2.39370       -10.80460        -1.52382
N           1.76125       -11.15276        -2.83278
C           2.50417       -10.72189        -4.04786
C           3.82071       -11.51135        -4.17885
N           3.63420       -12.94916        -3.94167
C           2.54370       -13.50091        -3.35807
O           2.46716       -14.70438        -3.23135
C           1.39057       -12.58270        -2.96767
C           3.95148        -6.84677         1.05232
C           4.37921        -7.64832         2.28945
F           4.12838        -8.96885         2.26007
F           5.69951        -7.52781         2.52409
F           3.76480        -7.18313         3.39344
C           4.26216        -5.47619         1.05162
C           5.14007        -2.67259         0.76869
C           5.35255        -1.30463         0.63178
H           8.13384         0.07061         1.92990
H           8.12337        -1.48129         1.05335
H           7.39382        -1.36910         2.67971
H           6.50625         1.60583         0.62463
H           2.72407        -4.56209        -1.83833
H           2.25818        -6.86853        -1.91838
H           3.27973        -8.95555        -2.19070
H           1.56733        -8.83947        -1.68066
H           1.74551       -11.13543        -0.70711
H           3.36789       -11.28916        -1.41493
H           2.70865        -9.64930        -4.04300
H           1.88640       -10.92474        -4.92741
H           4.53987       -11.13818        -3.44419
H           4.24106       -11.36069        -5.17662
H           4.37626       -13.56393        -4.23884
H           0.95395       -12.95572        -2.03735
H           0.64742       -12.67549        -3.76523
H           4.79970        -5.07700         1.90617
H           5.80694        -3.26988         1.38294

