%nprocshared=4
%mem=512Mb
%chk=chembl496942.chk 
# opt freq=noraman m062x/6-311G(d,p) scf=maxcycle=1000 maxdisk=100Gb 

chembl496942 


0  1
C           0.87470        -0.17734        -0.07913
N           2.35299        -0.09775        -0.12618
C           2.95011         1.11940        -0.28667
O           2.28550         2.10767        -0.54137
N           4.30970         1.18941        -0.13451
C           4.92516         2.54702        -0.14353
C           4.80677         3.21311         1.22047
C           5.81578         3.06253         2.17169
C           5.65418         3.57990         3.45641
C           4.46342         4.21450         3.82380
C           4.26466         4.65542         5.24780
O           5.13508         4.60555         6.09219
O           3.04260         5.00004         5.56032
C           3.47718         4.41017         2.84995
C           3.66011         3.93395         1.55531
C           5.13693         0.11933         0.06640
O           6.34198         0.24011         0.19537
C           4.45774        -1.18682         0.08619
C           5.20575        -2.42155         0.18896
C           4.59109        -3.66943         0.17429
C           5.37610        -4.87667         0.23864
C           6.00453        -5.87330         0.28771
C           6.74441        -7.14490         0.35307
C           5.81511        -8.29145         0.71880
C           5.20083        -9.05053        -0.28103
C           4.34575       -10.09811         0.05732
C           4.09838       -10.39246         1.39652
C           4.70652        -9.63788         2.39751
C           5.56195        -8.59055         2.05965
C           3.20934        -3.75272         0.09108
C           2.45064        -2.59285         0.02229
C           3.07844        -1.28369         0.00626
H           0.41297         0.81089        -0.01307
H           0.57111        -0.74154         0.80703
H           0.50708        -0.67898        -0.97752
H           4.43787         3.16188        -0.90523
H           5.97615         2.48730        -0.43862
H           6.72305         2.51642         1.92331
H           6.44371         3.43510         4.19002
H           2.48200         4.78151         4.79684
H           2.55852         4.94294         3.08078
H           2.88276         4.10464         0.81601
H           6.28972        -2.35704         0.25467
H           7.54264        -7.05699         1.09377
H           7.21947        -7.33613        -0.61219
H           5.38551        -8.82577        -1.32876
H           3.87013       -10.68551        -0.72449
H           3.43058       -11.20910         1.66029
H           4.51278        -9.86532         3.44294
H           6.02962        -8.00402         2.84705
H           2.71598        -4.72282         0.08342
H           1.37319        -2.71371        -0.04550

