%nprocshared=4
%mem=512Mb
%chk=chembl4099269.chk 
# opt freq=noraman m062x/6-311G(d,p) scf=maxcycle=1000 maxdisk=100Gb 

chembl4099269 


0  1
C           8.85391        -1.74635         1.79861
C           7.37528        -1.36827         1.55137
C           7.30385        -0.08130         0.69748
C           6.58992        -2.50050         0.83629
C           6.71177        -3.90874         1.48757
N           6.05423        -4.92744         0.65744
C           6.60510        -5.44397        -0.45937
O           7.68198        -5.09266        -0.90500
O           5.71946        -6.25746        -1.07371
C           5.99981        -6.74838        -2.41368
C           6.22556        -8.25122        -2.39591
C           5.17685        -9.11854        -2.71167
C           5.39169       -10.49378        -2.76454
C           6.65793       -11.01090        -2.49756
C           7.70588       -10.15358        -2.17546
C           7.49060        -8.77725        -2.12330
C           6.20691        -3.97118         2.92221
O           6.75426        -4.67406         3.74830
N           5.06303        -3.30534         3.20817
C           4.40172        -3.32335         4.52189
C           2.92983        -3.01642         4.35083
C           1.96227        -3.91176         4.60625
C           0.57400        -3.58693         4.48115
N          -0.53182        -3.30461         4.42127
C           5.06172        -2.33429         5.51374
C           4.41925        -2.39992         6.91884
C           5.12716        -1.49785         7.91868
C           4.74181        -0.16252         8.05967
C           5.38426         0.66106         8.98349
C           6.41488         0.15399         9.77196
C           6.80340        -1.17703         9.63541
C           6.16154        -2.00046         8.71134
H           9.43804        -0.86641         2.07910
H           9.30172        -2.18181         0.90182
H           8.93571        -2.46874         2.61390
H           6.90682        -1.15989         2.51679
H           7.80974        -0.22305        -0.26072
H           7.78286         0.75244         1.21654
H           6.26592         0.19500         0.50036
H           6.95359        -2.56770        -0.19212
H           5.53585        -2.21891         0.76611
H           7.77079        -4.17593         1.53960
H           5.14934        -5.25974         0.95194
H           6.86713        -6.23829        -2.84244
H           5.13646        -6.50786        -3.03861
H           4.18852        -8.71986        -2.93032
H           4.57298       -11.16206        -3.01986
H           6.82686       -12.08498        -2.54869
H           8.69396       -10.55679        -1.97016
H           8.31624        -8.11075        -1.88044
H           4.63195        -2.75277         2.48229
H           4.50623        -4.33245         4.93292
H           2.67822        -2.00596         4.03521
H           2.19438        -4.92358         4.93676
H           4.99120        -1.31412         5.12502
H           6.12491        -2.57332         5.60295
H           4.44188        -3.43059         7.28062
H           3.36774        -2.10847         6.86225
H           3.93647         0.24136         7.45060
H           5.07913         1.69928         9.09041
H           6.91448         0.79570        10.49365
H           7.60652        -1.57435        10.25146
H           6.47100        -3.03856         8.61294

