%nprocshared=4
%mem=512Mb
%chk=chembl3218475.chk 
# opt freq=noraman m062x/6-311G(d,p) scf=maxcycle=1000 maxdisk=100Gb 

chembl3218475 


0  1
N           2.06151         4.66611        -3.35312
C           1.90689         4.61992        -2.22662
C           1.74431         4.59751        -0.76136
C           3.07193         4.98292        -0.07942
C           3.75386         3.64167         0.18974
C           2.57335         2.70426         0.46530
N           1.39197         3.25939        -0.22460
C           0.20552         2.56767        -0.24650
O           0.17577         1.48672         0.31340
C          -1.03478         3.02806        -1.04961
N          -1.26374         4.48595        -1.02553
C          -1.45367         5.24177         0.07362
O          -1.40966         4.83546         1.21865
O          -1.73414         6.50193        -0.31332
C          -2.31456         7.41955         0.64563
C          -3.78649         7.07760         0.81450
C          -4.23281         6.38561         1.94234
C          -5.58229         6.06288         2.07916
C          -6.49181         6.43090         1.08976
C          -6.05111         7.11970        -0.03831
C          -4.70152         7.44006        -0.17583
C          -2.31378         2.31971        -0.48284
C          -3.58871         2.64027        -1.29807
C          -3.41106         2.20229        -2.76542
C          -2.14322         2.83076        -3.37903
C          -0.89394         2.52512        -2.51681
H           1.00778         5.34834        -0.48173
H           2.85825         5.47540         0.87281
H           3.69391         5.65186        -0.68076
H           4.45232         3.68787         1.02833
H           4.28906         3.31036        -0.70414
H           2.36772         2.66917         1.53901
H           2.79330         1.69606         0.10188
H          -1.34224         4.94091        -1.92102
H          -2.21008         8.43353         0.25088
H          -1.77012         7.35815         1.59271
H          -3.52822         6.08886         2.71574
H          -5.92503         5.52137         2.95745
H          -7.54428         6.17882         1.19683
H          -6.75908         7.40483        -0.81255
H          -4.36159         7.97039        -1.06238
H          -2.47585         2.59618         0.56099
H          -2.17823         1.23476        -0.49345
H          -3.81560         3.70829        -1.25046
H          -4.44062         2.11309        -0.86245
H          -4.28832         2.49460        -3.34728
H          -3.33594         1.11282        -2.81277
H          -2.27739         3.91078        -3.47721
H          -1.99455         2.43463        -4.38622
H          -0.02660         2.96973        -2.99742
H          -0.72145         1.44531        -2.51444

