%nprocshared=4
%mem=512Mb
%chk=chembl3264590.chk 
# opt freq=noraman m062x/6-311G(d,p) scf=maxcycle=1000 maxdisk=100Gb 

chembl3264590 


0  1
C           4.71611        13.40494         5.13907
C           6.01243        12.61477         5.37108
O           6.66658        12.41097         4.09685
C           7.81319        11.64954         3.95425
C           8.55372        11.20592         5.05312
C           9.68019        10.41434         4.85765
C          10.06808        10.04493         3.57347
C           9.33047        10.47682         2.45578
C           9.70293        10.01471         1.07730
C          10.20267         8.71533         0.88399
C          10.52478         8.26369        -0.39287
C          10.36258         9.09083        -1.49978
C          10.77387         8.57045        -2.86794
O          10.08681         9.29364        -3.92292
C          10.77511         9.69583        -5.01484
O          11.98030         9.60242        -5.14908
N           9.95749        10.17975        -5.98385
C           8.50155         9.98609        -6.02815
C           8.18846         9.71638        -7.50313
C           9.21071        10.58134        -8.24944
C          10.43048        10.66568        -7.29623
C          11.06773        12.05802        -7.25495
O          10.64471        13.00927        -7.88288
N          12.13459        12.19231        -6.43809
C          12.91337        13.42590        -6.26737
C          14.31399        13.08183        -5.97070
N          15.38518        12.78412        -5.72812
C          12.31039        14.33118        -5.16612
C          13.00307        15.68140        -5.06662
N          13.02279        16.24155        -3.84367
O          13.48058        16.26224        -6.01966
C           9.87869        10.38895        -1.31793
C           9.54150        10.84802        -0.04557
C           8.20819        11.29983         2.66328
H           4.21324        13.59185         6.09028
H           4.03738        12.84352         4.49305
H           4.93301        14.36571         4.66674
H           5.77861        11.64341         5.81638
H           6.67698        13.17701         6.03304
H           8.26492        11.46396         6.06756
H          10.25466        10.07162         5.71449
H          10.95071         9.42161         3.45446
H          10.32781         8.03341         1.72151
H          10.90632         7.25439        -0.51907
H          10.51743         7.51209        -2.96941
H          11.85727         8.67069        -2.97153
H           8.01079        10.90564        -5.69641
H           8.17557         9.14583        -5.40904
H           7.15798         9.96927        -7.76332
H           8.36333         8.66023        -7.72574
H           8.76218        11.56028        -8.42919
H           9.48377        10.14306        -9.21244
H          11.20279         9.97611        -7.64934
H          12.44975        11.38315        -5.92321
H          12.90498        13.97394        -7.21419
H          12.36165        13.81535        -4.20273
H          11.25259        14.50728        -5.37492
H          12.60420        15.76888        -3.05767
H          13.45348        17.14513        -3.71646
H           9.76400        11.05698        -2.16733
H           9.17154        11.86473         0.06223
H           7.60722        11.64129         1.82373

