%nprocshared=4
%mem=512Mb
%chk=chembl4090306.chk 
# opt freq=noraman m062x/6-311G(d,p) scf=maxcycle=1000 maxdisk=100Gb 

chembl4090306 


0  1
C           8.93733        -2.06432         1.33735
C           7.56402        -2.25255         0.65003
C           7.23962        -0.99523        -0.18848
C           7.52555        -3.50056        -0.27433
C           7.87818        -4.84743         0.41093
N           8.11644        -5.89086        -0.59401
C           9.27146        -6.02577        -1.27105
O          10.24190        -5.31263        -1.10017
O           9.14502        -6.99403        -2.20255
C          10.21939        -7.22451        -3.15013
C          10.70096        -8.65639        -3.00936
C           9.87021        -9.71492        -3.37172
C          10.32518       -11.02968        -3.28596
C          11.62288       -11.31219        -2.83573
N          12.09441       -12.61121        -2.78138
O          11.33032       -13.58086        -3.15307
O          13.30313       -12.82004        -2.38619
C          12.44081       -10.23996        -2.45208
C          11.98403        -8.92608        -2.53685
C           6.79684        -5.29078         1.38306
O           5.84534        -5.96496         1.03817
N           7.04588        -5.01221         2.68250
C           6.25523        -5.51217         3.81580
C           6.18092        -4.43833         4.88132
C           5.04779        -3.79327         5.19305
C           5.00165        -2.79214         6.21482
N           4.99707        -2.01047         7.04937
C           6.86251        -6.82313         4.37122
C           6.04031        -7.41455         5.53827
C           6.63283        -8.71745         6.05446
C           7.59985        -8.70040         7.06145
C           8.13468        -9.89462         7.54435
C           7.70855       -11.11148         7.01943
C           6.74638       -11.13538         6.01081
C           6.21153        -9.94191         5.52891
H           8.96374        -1.11956         1.88586
H           9.74513        -2.05347         0.60141
H           9.13285        -2.86063         2.05753
H           6.79909        -2.35222         1.42406
H           7.94364        -0.88965        -1.01846
H           7.29917        -0.09185         0.42302
H           6.23067        -1.05741        -0.60243
H           8.22842        -3.33388        -1.09473
H           6.53392        -3.58365        -0.72717
H           8.80360        -4.73984         0.98154
H           7.34408        -6.50148        -0.81444
H          11.04221        -6.52254        -2.98796
H           9.82675        -7.05368        -4.15615
H           8.86266        -9.51565        -3.72996
H           9.65366       -11.83016        -3.58554
H          13.45121       -10.41758        -2.09051
H          12.64065        -8.11126        -2.24058
H           7.85915        -4.45880         2.90538
H           5.24246        -5.72935         3.46205
H           7.10777        -4.21252         5.40566
H           4.10858        -4.00824         4.68391
H           7.88719        -6.64065         4.70540
H           6.91194        -7.56056         3.56589
H           5.01223        -7.58502         5.20847
H           5.99256        -6.69743         6.36109
H           7.93901        -7.75462         7.47916
H           8.88622        -9.87518         8.33023
H           8.12369       -12.04366         7.39713
H           6.41165       -12.08598         5.60287
H           5.46080        -9.97039         4.74248

