%nprocshared=4
%mem=512Mb
%chk=chembl1208975.chk 
# opt freq=noraman m062x/6-311G(d,p) scf=maxcycle=1000 maxdisk=100Gb 

chembl1208975 


0  1
C           7.43709        -0.90536         1.68872
N           6.15502        -0.58048         1.07204
C           5.76149         0.62929         0.50716
N           4.88045         0.68172        -0.19774
C           4.51389        -0.61516        -0.27941
C           3.51244        -1.22465        -1.03009
C           2.61218        -0.46655        -1.86064
N           1.88058         0.12703        -2.50837
N           3.32701        -2.56785        -0.99068
C           4.08483        -3.35750        -0.17034
C           3.81956        -4.74115        -0.12461
C           3.08231        -5.33259        -1.15493
C           2.74524        -6.67645        -1.11523
C           3.08059        -7.47142        -0.01503
O           2.60156        -8.77368         0.06555
C           1.75569        -9.37808        -0.95092
C           1.07373       -10.64620        -0.46547
C           1.09546       -11.05738         0.87122
C           0.35659       -12.17855         1.24411
C          -0.38335       -12.85012         0.27373
C          -0.35396       -12.38302        -1.03890
N           0.35538       -11.29492        -1.41210
C           3.84525        -6.90815         1.02605
C           4.24500        -7.66076         2.30434
F           4.11172        -8.99860         2.27158
F           5.53563        -7.44252         2.62147
F           3.52739        -7.23309         3.35982
C           4.21971        -5.55872         0.94266
C           5.09414        -2.78056         0.62377
C           5.27904        -1.40762         0.50889
H           8.00045         0.01308         1.87476
H           8.01266        -1.54914         1.01732
H           7.26784        -1.42481         2.63577
H           6.34427         1.53363         0.60487
H           2.77043        -4.75972        -2.02463
H           2.18765        -7.07562        -1.95629
H           2.36661        -9.58505        -1.83455
H           0.97044        -8.66717        -1.21981
H           1.66260       -10.50833         1.61891
H           0.34777       -12.51540         2.27724
H          -0.97881       -13.72115         0.53541
H          -0.92338       -12.87311        -1.82657
H           4.76160        -5.13561         1.78273
H           5.74942        -3.36072         1.26671

