%nprocshared=4
%mem=512Mb
%chk=chembl1209087.chk 
# opt freq=noraman m062x/6-311G(d,p) scf=maxcycle=1000 maxdisk=100Gb 

chembl1209087 


0  1
C           1.51291         0.07988        -1.78020
N           2.82185        -0.00948        -1.13714
C           3.61423         1.01453        -0.63030
N           4.48298         0.77850         0.05494
C           4.39808        -0.56437         0.17877
C           5.16166        -1.46175         0.92434
C           6.29303        -1.01982         1.69919
N           7.20309        -0.67189         2.29740
N           4.88355        -2.79345         0.92075
C           3.87593        -3.29164         0.14108
C           3.64290        -4.68102         0.09821
C           2.94488        -5.27833        -0.95753
C           2.81034        -6.65804        -1.03100
C           3.32996        -7.48650        -0.03482
O           3.27268        -8.86302        -0.19308
C           3.15549        -9.49086        -1.49577
C           3.58963       -10.96389        -1.41369
C           2.65856       -11.79301        -0.50371
N           2.91278       -13.25083        -0.65285
C           1.88132       -14.07096         0.01669
C           2.41129       -14.28121         1.43757
C           3.91844       -14.44640         1.21882
C           4.21716       -13.69300        -0.09161
C           3.94983        -6.90603         1.08743
C           4.44142        -7.69636         2.30840
F           4.09350        -8.99484         2.35381
F           5.78186        -7.65683         2.41671
F           3.95934        -7.16550         3.44902
C           4.13752        -5.51853         1.10940
C           3.08917        -2.41717        -0.63528
C           3.38381        -1.06463        -0.56106
H           1.27684         1.12519        -1.99659
H           0.75057        -0.33092        -1.11279
H           1.52380        -0.49030        -2.71279
H           3.38006         2.05823        -0.78290
H           2.56337        -4.69974        -1.79229
H           2.30517        -7.07732        -1.89674
H           3.81757        -8.97465        -2.19709
H           2.12221        -9.41649        -1.84645
H           4.61923       -11.01007        -1.05346
H           3.57717       -11.38478        -2.42188
H           1.62642       -11.58676        -0.80060
H           2.78418       -11.48411         0.53844
H           1.81706       -15.04073        -0.48549
H           0.89644       -13.59499         0.01105
H           1.96441       -15.15237         1.92193
H           2.21555       -13.39433         2.04568
H           4.16448       -15.50418         1.09543
H           4.49319       -14.04753         2.05780
H           4.70472       -14.37329        -0.79529
H           4.88472       -12.85038         0.10487
H           4.65417        -5.08701         1.96456
H           2.24912        -2.74489        -1.23690

