%nprocshared=4
%mem=512Mb
%chk=chembl3605412.chk 
# opt freq=noraman m062x/6-311G(d,p) scf=maxcycle=1000 maxdisk=100Gb 

chembl3605412 


0  1
N           1.09458         0.22887        -0.80504
C           2.21456         0.21269        -0.60117
C           3.66458         0.16267        -0.37374
N           4.28387        -0.92749        -1.12961
C           5.60857        -1.18830        -1.12506
O           6.37913        -0.48561        -0.49725
C           6.05742        -2.33174        -2.03873
N           5.56127        -2.01414        -3.40917
C           4.50857        -2.52495        -4.10063
O           3.80084        -3.40984        -3.66886
C           4.23784        -1.92595        -5.45635
C           3.28709        -2.52414        -6.28359
C           3.00676        -2.00646        -7.54463
C           3.64315        -0.84993        -8.02079
N           3.31812        -0.36948        -9.28403
O           2.54427        -1.06669       -10.04454
O           3.76684         0.76656        -9.68901
C           4.59046        -0.23941        -7.17039
F           5.26573         0.87916        -7.49780
C           4.88878        -0.77942        -5.91884
C           5.55904        -3.66543        -1.39371
C           6.08328        -4.92532        -2.12652
C           7.62194        -4.93416        -2.16752
C           8.15238        -3.63818        -2.81361
C           7.61548        -2.39404        -2.06905
H           3.85344         0.01516         0.69299
H           4.10460         1.11349        -0.68642
H           3.67661        -1.51235        -1.68457
H           6.08175        -1.28113        -3.86363
H           2.76686        -3.42276        -5.95978
H           2.27003        -2.52791        -8.15048
H           5.61846        -0.26681        -5.29747
H           4.46996        -3.69481        -1.33097
H           5.91095        -3.70601        -0.35890
H           5.70157        -4.96877        -3.14744
H           5.72478        -5.82041        -1.61346
H           7.96986        -5.80020        -2.73546
H           8.01439        -5.02959        -1.15176
H           7.86109        -3.60033        -3.86568
H           9.24431        -3.63926        -2.77731
H           8.01828        -1.49142        -2.53443
H           8.00281        -2.42120        -1.04554

