%nprocshared=4
%mem=512Mb
%chk=chembl1209035.chk 
# opt freq=noraman m062x/6-311G(d,p) scf=maxcycle=1000 maxdisk=100Gb 

chembl1209035 


0  1
C           1.28904         0.17601        -1.74428
N           2.67770         0.06212        -1.30575
C           3.49561         1.05836        -0.78353
N           4.43859         0.79388        -0.21820
C           4.39757        -0.55668        -0.21835
C           5.24979        -1.48925         0.36886
C           6.42327        -1.08414         1.09850
N           7.36460        -0.76917         1.66648
N           4.99674        -2.82177         0.28352
C           3.91758        -3.28919        -0.41662
C           3.67145        -4.67782        -0.47201
C           2.75982        -5.24773        -1.37230
C           2.51444        -6.61669        -1.36823
C           3.16762        -7.46001        -0.47513
O           2.79172        -8.78900        -0.44116
C           3.25315        -9.84010        -1.34375
C           4.73045        -9.69235        -1.80170
C           4.88650        -8.87631        -3.10146
N           4.01613        -9.42345        -4.16011
C           2.59119        -9.29406        -3.80141
C           2.26152       -10.08111        -2.51267
C           4.06298        -6.91600         0.46374
C           4.70475        -7.71675         1.60708
F           4.69419        -9.05447         1.47298
F           5.99945        -7.39053         1.78049
F           4.09457        -7.45351         2.77731
C           4.32262        -5.54159         0.42457
C           3.04462        -2.37567        -1.04407
C           3.32470        -1.02380        -0.89762
H           1.03987         1.22716        -1.91283
H           0.62915        -0.23065        -0.97279
H           1.15017        -0.38254        -2.67334
H           3.21103         2.10058        -0.77883
H           2.23423        -4.65152        -2.10952
H           1.77313        -7.02186        -2.04950
H           3.21167       -10.74302        -0.72748
H           5.13612       -10.69205        -1.97546
H           5.33882        -9.24424        -1.01512
H           5.92732        -8.92615        -3.43267
H           4.63213        -7.82891        -2.92067
H           4.24675       -10.40129        -4.33047
H           1.97860        -9.68109        -4.62026
H           2.35154        -8.23832        -3.67402
H           2.27472       -11.14668        -2.75395
H           1.24434        -9.84614        -2.19062
H           5.00110        -5.13561         1.17081
H           2.14756        -2.67414        -1.57494

