%nprocshared=4
%mem=512Mb
%chk=chembl1209859.chk 
# opt freq=noraman m062x/6-311G(d,p) scf=maxcycle=1000 maxdisk=100Gb 

chembl1209859 


0  1
N           4.50466         1.52037        -3.76492
C           4.72156         1.12800        -2.71316
C           5.01459         0.64320        -1.38855
N           5.64567        -0.55705        -1.28391
C           5.99370        -1.06032        -0.05990
C           6.64274        -2.31019         0.02967
C           7.25842        -2.74232         1.21057
C           7.83766        -3.99962         1.29639
C           7.80445        -4.88463         0.21602
O           8.28412        -6.17745         0.37274
C           8.61997        -6.75493         1.66015
C           8.77076        -8.27946         1.52282
C           7.45827        -8.92412         1.03528
O           7.53723       -10.34407         1.17344
C           7.24407        -4.45806        -1.00202
C           7.14511        -5.33542        -2.25968
F           7.87881        -6.46256        -2.25468
F           5.87379        -5.71422        -2.48588
F           7.53595        -4.66540        -3.36038
C           6.68559        -3.17477        -1.07681
C           5.67091        -0.33870         1.10945
C           5.00679         0.86470         0.95018
N           4.54571         1.73597         1.83851
C           3.98699         2.68988         0.99681
N           4.02943         2.55926        -0.12641
C           4.67321         1.37875        -0.25523
H           7.33306        -2.10697         2.08520
H           8.30518        -4.27963         2.23573
H           7.81800        -6.54026         2.37247
H           9.55563        -6.31536         2.01803
H           9.04005        -8.69209         2.49829
H           9.58195        -8.51254         0.82904
H           7.28385        -8.66067        -0.01216
H           6.62113        -8.55386         1.63358
H           8.25160       -10.66994         0.59651
H           6.22452        -2.87746        -2.01513
H           5.86439        -0.70132         2.11291
H           4.54210         1.68594         2.84877
H           3.46957         3.55908         1.37589

