%nprocshared=4
%mem=512Mb
%chk=chembl3264581.chk 
# opt freq=noraman m062x/6-311G(d,p) scf=maxcycle=1000 maxdisk=100Gb 

chembl3264581 


0  1
N           1.36303         1.34125         0.01987
C           2.30424         0.70544         0.08349
C           3.53230        -0.10521         0.12611
C           3.23941        -1.60117        -0.15399
C           2.32505        -2.26792         0.86507
N           1.48737        -3.19679         0.37078
O           2.37556        -2.06666         2.06147
N           4.24266         0.09927         1.39163
C           5.56998        -0.08232         1.55147
O           6.27728        -0.48432         0.64800
C           6.10363         0.11099         2.96153
C           5.81813        -1.12804         3.82924
C           5.89904        -0.59740         5.26351
C           5.42871         0.86113         5.14888
N           5.60801         1.26441         3.74686
C           5.45150         2.54982         3.33399
O           5.15561         3.45092         4.09529
O           5.58877         2.68355         1.99844
C           5.49128         3.98032         1.36375
C           6.89541         4.40685         0.98645
C           7.57998         3.70917        -0.00491
C           8.88597         4.05395        -0.34100
C           9.53585         5.11473         0.31776
C          10.96313         5.46249        -0.00928
C          11.43183         6.78499         0.11215
C          12.76215         7.09307        -0.17011
C          13.64301         6.09439        -0.57179
F          14.92567         6.40782        -0.83168
C          13.19371         4.78278        -0.69939
F          14.03909         3.80726        -1.08140
C          11.86588         4.46317        -0.42429
C           8.82827         5.82285         1.30848
C           7.52232         5.46520         1.63847
H           4.17686         0.26418        -0.67599
H           2.79938        -1.68763        -1.15134
H           4.18061        -2.15501        -0.18706
H           1.47115        -3.39564        -0.61750
H           0.88322        -3.70604         0.99785
H           3.69988         0.41742         2.17986
H           7.18627         0.23364         2.86478
H           6.52891        -1.93639         3.64338
H           4.80699        -1.49868         3.63996
H           6.93605        -0.62498         5.60754
H           5.28070        -1.17658         5.95346
H           6.01362         1.50596         5.81105
H           4.36790         0.93698         5.40382
H           5.00349         4.70452         2.02239
H           4.88059         3.86850         0.46404
H           7.09662         2.87730        -0.51266
H           9.38385         3.48655        -1.12297
H          10.76728         7.59022         0.41425
H          13.11297         8.11752        -0.07424
H          11.55439         3.42610        -0.51264
H           9.29391         6.63842         1.85532
H           6.99876         6.00823         2.42188

